pychemy/__init__.py,sha256=xKUiX0ZYXbYTA8dYVoy7bcY2aZprczNMGX4XQ_Q1slw,22
pychemy/adducts.py,sha256=J4-KTW2QiWfy1W_Bz3le2xAi-RJEGEplK11JW3Xg2A8,2792
pychemy/amino_acids.py,sha256=gfDGJ_cf6iTnpEQGEH8L2E2g1QcfvVZsgDSIg7pBqQo,3974
pychemy/chem_structure.py,sha256=cDad_jR_WGSk_BQO4Q9B4CiH1ujwe15DiWugxsojemk,6629
pychemy/elements.py,sha256=ZSSmx6OAbMKKR2MqhPlFko-IUQNKyC3aNuunDS3VRVQ,117293
pychemy/inchi.py,sha256=dFFYP1Snrfl90eg0XAV7AT6d_6B14FtdJ_BL0O-WxRA,4830
pychemy/inchi_converter.py,sha256=A-Q4OU7hRhxvMkYZHfMmCTTfn1dhpvcRtnSWMrrZb54,184
pychemy/molmass.py,sha256=I2xbFIooa58PJoI2P1nBG0uH3ok_Fc3SYBvk-96hvjA,46573
pychemy/peptide_sets.py,sha256=0rupnEvXzqqQn8EXzB_75HSenTw6nj4dY76mu3jezm0,15635
pychemy/peptides.py,sha256=2AtKLgwflk5yPiZwO47-2piTUYt80KYBYyKmbXvoeLY,7278
pychemy/resources/STEPP/STEPP_NormFactor_mean.txt,sha256=KFoJUQEBEAU9VY-9Hn_nyCSXfeamLka3u6cdCNVe99I,263
pychemy/resources/STEPP/STEPP_NormFactor_std.txt,sha256=5IBeCRFhg_93_xgO3qUp85eMlNiIjOzqeV71vnLB5Hc,258
pychemy/resources/STEPP/STEPP_SupportVectors.txt,sha256=ZVFyhxqdc53BKVixG-BL1433AjS6tz9lTKJHVKdsUEQ,2818268
pychemy/resources/STEPP/STEPP_Weights.txt,sha256=vhOKmzajZ5sWECNLPEjCe93Cgc9Emx5nyQrkZWZBgwA,95386
pychemy-0.4.4.dist-info/DESCRIPTION.rst,sha256=P4A0VUwLgioxxi_ysTuHWbrXUzmmmonRlm3kJ4pqGNI,2031
pychemy-0.4.4.dist-info/METADATA,sha256=afVkL2h6AkRXJ-MT3DOA7DjS3sNmvKOT4czSh7Wp4-Q,3480
pychemy-0.4.4.dist-info/RECORD,,
pychemy-0.4.4.dist-info/WHEEL,sha256=o2k-Qa-RMNIJmUdIc7KU6VWR_ErNRbWNlxDIpl7lm34,110
pychemy-0.4.4.dist-info/metadata.json,sha256=9pdisA4G8ivcwwEuHeyCgR4COQiBmHRJNKCOMy6R36I,1583
pychemy-0.4.4.dist-info/top_level.txt,sha256=MRpNg_4Cp5Lm9GhMxKKkJY1ulUQxhBxMBXCWC3SWZuw,8
pychemy-0.4.4.dist-info/zip-safe,sha256=AbpHGcgLb-kRsJGnwFEktk7uzpZOCcBY74-YBdrKVGs,1
